/*--------------------------------*- C++ -*----------------------------------*\
| =========                 |                                                 |
| \\      /  F ield         | OpenFOAM: The Open Source CFD Toolbox           |
|  \\    /   O peration     | Version:  dev                                   |
|   \\  /    A nd           | Web:      www.OpenFOAM.org                      |
|    \\/     M anipulation  |                                                 |
\*---------------------------------------------------------------------------*/
FoamFile
{
    version     2.0;
    format      ascii;
    class       dictionary;
    location    "";
    object      caseProperties;
}
// * * * * * * * * * * * * * * * * * * * * * * * * * * * * * * * * * * * * * //


wall
{
    p
    {
        type            zeroGradient;
    }

    U
    {
        type            fixedValue;
        value           uniform (0 0 0);
    }

    T
    {
        type            fixedValue;
	value		uniform 350;
    }

    k
    {
        type            kqRWallFunction;
        value           uniform $:internalField.k;
    }

    nut
    {
        type            nutkWallFunction;
        value           uniform 0;
    }

    alphat
    {
        type            compressible::alphatWallFunction;
        Prt             0.85;
        value           uniform 0;
    }

    omega
    {
        type            omegaWallFunction;
        value           uniform $:internalField.omega;
    }
}

piston
{
    U
    {
        type            movingWallVelocity;
        value           uniform (0 0 0);
    }
}

// ************************************************************************* //
